examples/feeders/25_SE001_1/008_segmentoBT.dss
New Line.SBT_19872 phases=3 bus1=BT377781.1.2.4 bus2=BT358841.1.2.4 linecode=76_3 length=0.04249 units=km
New Line.SBT_2519 phases=3 bus1=ET1_1111.1.2.4 bus2=BT377781.1.2.4 linecode=76_3 length=0.0559 units=km
New Line.SBT_2369 phases=3 bus1=BT200401.1.2.4 bus2=BT200411.1.2.4 linecode=44_3 length=0.0461 units=km
New Line.SBT_2368 phases=3 bus1=BT194821.1.2.4 bus2=BT200401.1.2.4 linecode=44_3 length=0.07034 units=km
New Line.SBT_2379 phases=3 bus1=BT200421.1.2.4 bus2=BT200431.1.2.4 linecode=44_3 length=0.09155 units=km
New Line.SBT_19879 phases=3 bus1=BT200411.1.2.4 bus2=BT200421.1.2.4 linecode=44_3 length=0.06201 units=km
New Line.SBT_15825 phases=4 bus1=BT550341.1.2.3.4 bus2=BT550351.1.2.3.4 linecode=75_4 length=0.06926 units=km
New Line.SBT_27454 phases=4 bus1=BT550331.1.2.3.4 bus2=BT550341.1.2.3.4 linecode=75_4 length=0.0645 units=km
New Line.SBT_31593 phases=4 bus1=BT200391.1.2.3.4 bus2=BT194821.1.2.3.4 linecode=75_4 length=0.08301 units=km
New Line.SBT_31594 phases=4 bus1=ET1_1112.1.2.3.4 bus2=BT200391.1.2.3.4 linecode=75_4 length=0.04 units=km
New Line.SBT_31596 phases=4 bus1=ET1_1112.1.2.3.4 bus2=BT550331.1.2.3.4 linecode=75_4 length=0.0442 units=km
New Line.SBT_30763 phases=2 bus1=BT435671.1.4 bus2=BT701301.1.4 linecode=62_2 length=0.03472 units=km
New Line.SBT_32348 phases=3 bus1=BT779242.2.3.4 bus2=BT270802.2.3.4 linecode=44_3 length=0.06668 units=km
New Line.SBT_32349 phases=3 bus1=BT270802.2.3.4 bus2=BT270812.2.3.4 linecode=44_3 length=0.05946 units=km
New Line.SBT_32350 phases=3 bus1=BT270812.2.3.4 bus2=BT270821.2.3.4 linecode=44_3 length=0.08603 units=km
New Line.SBT_32359 phases=3 bus1=BT779251.2.3.4 bus2=BT779242.2.3.4 linecode=44_3 length=0.07276 units=km
New Line.SBT_32360 phases=3 bus1=BT269871.2.3.4 bus2=BT779251.2.3.4 linecode=44_3 length=0.05891 units=km
New Line.SBT_27804 phases=4 bus1=BT269891.1.2.3.4 bus2=BT435671.1.2.3.4 linecode=97_4 length=0.03178 units=km
New Line.SBT_28421 phases=4 bus1=BT269841.1.2.3.4 bus2=BT357151.1.2.3.4 linecode=74_4 length=0.04376 units=km
New Line.SBT_28422 phases=4 bus1=BT701351.1.2.3.4 bus2=BT313401.1.2.3.4 linecode=74_4 length=0.04588 units=km
New Line.SBT_28740 phases=4 bus1=BT701261.1.2.3.4 bus2=BT701271.1.2.3.4 linecode=74_4 length=0.04208 units=km
New Line.SBT_19880 phases=4 bus1=BT269871.1.2.3.4 bus2=BT269881.1.2.3.4 linecode=97_4 length=0.04604 units=km
New Line.SBT_19883 phases=4 bus1=BT269851.1.2.3.4 bus2=BT269861.1.2.3.4 linecode=97_4 length=0.03454 units=km
New Line.SBT_2220 phases=2 bus1=BT348471.1.4 bus2=BT348481.1.4 linecode=60_2 length=0.07303 units=km
New Line.SBT_17530 phases=4 bus1=ET1_1113.1.2.3.4 bus2=BT269871.1.2.3.4 linecode=97_4 length=0.03769 units=km
New Line.SBT_17531 phases=4 bus1=BT269871.1.2.3.4 bus2=BT701261.1.2.3.4 linecode=74_4 length=0.02059 units=km
New Line.SBT_17532 phases=4 bus1=BT357151.1.2.3.4 bus2=BT701351.1.2.3.4 linecode=74_4 length=0.05215 units=km
New Line.SBT_1822 phases=2 bus1=BT269901.1.4 bus2=BT269911.1.4 linecode=60_2 length=0.15579 units=km
New Line.SBT_2380 phases=4 bus1=ET1_1113.1.2.3.4 bus2=BT269851.1.2.3.4 linecode=97_4 length=0.05786 units=km
New Line.SBT_2381 phases=4 bus1=BT701271.1.2.3.4 bus2=BT269841.1.2.3.4 linecode=74_4 length=0.04018 units=km
New Line.SBT_2385 phases=4 bus1=BT269881.1.2.3.4 bus2=BT269891.1.2.3.4 linecode=97_4 length=0.03905 units=km
New Line.SBT_2386 phases=2 bus1=BT269891.1.4 bus2=BT269901.1.4 linecode=60_2 length=0.02625 units=km
New Line.SBT_2387 phases=4 bus1=BT269861.1.2.3.4 bus2=BT348471.1.2.3.4 linecode=97_4 length=0.08045 units=km
New Line.SBT_1769 phases=2 bus1=ET1_1152.2.4 bus2=BT133441.2.4 linecode=60_2 length=0.09354 units=km
New Line.SBT_1827 phases=2 bus1=BT75951.1.4 bus2=BT75961.1.4 linecode=62_2 length=0.03821 units=km
New Line.SBT_19529 phases=3 bus1=ET1_1152.1.2.4 bus2=BT133431.1.2.4 linecode=59_3 length=0.09492 units=km
New Line.SBT_19530 phases=3 bus1=ET1_1152.1.2.4 bus2=BT75941.1.2.4 linecode=59_3 length=0.10198 units=km
New Line.SBT_19564 phases=3 bus1=BT75941.1.2.4 bus2=BT75951.1.2.4 linecode=59_3 length=0.12304 units=km
New Line.SBT_19565 phases=2 bus1=BT75961.1.4 bus2=BT320661.1.4 linecode=62_2 length=0.08721 units=km
New Line.SBT_27610 phases=3 bus1=BT75941.1.2.4 bus2=BT718951.1.2.4 linecode=59_3 length=0.00781 units=km
New Line.SBT_26914 phases=3 bus1=ET1_1152.1.2.4 bus2=BT133411.1.2.4 linecode=59_3 length=0.09485 units=km
New Line.SBT_2548 phases=3 bus1=BT29091.1.2.4 bus2=BT29101.1.2.4 linecode=44_3 length=0.07453 units=km
New Line.SBT_19756 phases=3 bus1=BT29101.1.2.4 bus2=BT29111.1.2.4 linecode=44_3 length=0.10022 units=km
New Line.SBT_18121 phases=2 bus1=BT29111.2.4 bus2=BT29121.2.4 linecode=60_2 length=0.09 units=km
New Line.SBT_19975 phases=3 bus1=ET1_1155.1.2.4 bus2=BT29091.1.2.4 linecode=44_3 length=0.11414 units=km
New Line.SBT_16590 phases=2 bus1=ET1_1155.1.4 bus2=BT707941.1.4 linecode=62_2 length=0.04968 units=km
New Line.SBT_14079 phases=2 bus1=BT29091.1.4 bus2=BT603411.1.4 linecode=62_2 length=0.03256 units=km
New Line.SBT_12443 phases=2 bus1=BT707941.1.4 bus2=BT597561.1.4 linecode=62_2 length=0.03996 units=km
New Line.SBT_2189 phases=3 bus1=ET1_1160.1.2.4 bus2=BT76101.1.2.4 linecode=44_3 length=0.08668 units=km
New Line.SBT_2190 phases=3 bus1=BT76061.1.2.4 bus2=BT238042.1.2.4 linecode=44_3 length=0.13223 units=km
New Line.SBT_19758 phases=3 bus1=ET1_1160.1.2.4 bus2=BT76061.1.2.4 linecode=44_3 length=0.04965 units=km
New Line.SBT_19771 phases=3 bus1=BT76101.1.2.4 bus2=BT76111.1.2.4 linecode=44_3 length=0.07433 units=km
New Line.SBT_19772 phases=2 bus1=BT76111.2.4 bus2=BT76121.2.4 linecode=60_2 length=0.18572 units=km
New Line.SBT_34743 phases=2 bus1=BT238042.1.4 bus2=BT805271.1.4 linecode=60_2 length=0.13014 units=km
New Line.SBT_9050 phases=3 bus1=ET1_1224.1.2.4 bus2=BT182701.1.2.4 linecode=59_3 length=0.154 units=km
New Line.SBT_23678 phases=3 bus1=BT182701.1.2.4 bus2=BT182711.1.2.4 linecode=59_3 length=0.06801 units=km
New Line.SBT_19674 phases=3 bus1=ET1_1225.1.2.4 bus2=BT112511.1.2.4 linecode=44_3 length=0.07737 units=km
New Line.SBT_19679 phases=3 bus1=BT112521.1.2.4 bus2=BT112541.1.2.4 linecode=44_3 length=0.08078 units=km
New Line.SBT_19680 phases=2 bus1=BT112521.2.4 bus2=BT95011.2.4 linecode=60_2 length=0.04464 units=km
New Line.SBT_19681 phases=2 bus1=BT112401.1.4 bus2=BT112391.1.4 linecode=60_2 length=0.08865 units=km
New Line.SBT_19682 phases=2 bus1=BT95021.2.4 bus2=BT162571.2.4 linecode=60_2 length=0.1305 units=km
New Line.SBT_2214 phases=2 bus1=BT162571.2.4 bus2=BT95031.2.4 linecode=60_2 length=0.09315 units=km
New Line.SBT_2033 phases=3 bus1=BT112401.1.2.4 bus2=BT112411.1.2.4 linecode=44_3 length=0.08154 units=km
New Line.SBT_2034 phases=2 bus1=BT112541.1.4 bus2=BT95001.1.4 linecode=60_2 length=0.1301 units=km
New Line.SBT_2016 phases=3 bus1=ET1_1225.1.2.4 bus2=BT112441.1.2.4 linecode=44_3 length=0.10555 units=km
New Line.SBT_2017 phases=3 bus1=BT112511.1.2.4 bus2=BT112521.1.2.4 linecode=44_3 length=0.08877 units=km
New Line.SBT_2018 phases=3 bus1=BT112441.1.2.4 bus2=BT112431.1.2.4 linecode=44_3 length=0.06798 units=km
New Line.SBT_2019 phases=3 bus1=BT112431.1.2.4 bus2=BT112401.1.2.4 linecode=44_3 length=0.06912 units=km
New Line.SBT_2020 phases=2 bus1=BT112441.2.4 bus2=BT112451.2.4 linecode=60_2 length=0.13396 units=km
New Line.SBT_2031 phases=3 bus1=BT112521.1.2.4 bus2=BT112531.1.2.4 linecode=44_3 length=0.05142 units=km
New Line.SBT_2032 phases=2 bus1=BT95011.2.4 bus2=BT95021.2.4 linecode=60_2 length=0.07519 units=km
New Line.SBT_19877 phases=2 bus1=BT235821.2.4 bus2=BT235811.2.4 linecode=60_2 length=0.08085 units=km
New Line.SBT_19785 phases=3 bus1=ET1_1226.1.2.4 bus2=BT235861.1.2.4 linecode=44_3 length=0.10911 units=km
New Line.SBT_19870 phases=3 bus1=BT235891.1.2.4 bus2=BT235901.1.2.4 linecode=44_3 length=0.09047 units=km
New Line.SBT_19871 phases=3 bus1=BT235901.1.2.4 bus2=BT235911.1.2.4 linecode=44_3 length=0.07009 units=km
New Line.SBT_2215 phases=3 bus1=ET1_1226.1.2.4 bus2=BT235891.1.2.4 linecode=44_3 length=0.11042 units=km
New Line.SBT_2365 phases=3 bus1=BT235861.1.2.4 bus2=BT235831.1.2.4 linecode=44_3 length=0.09946 units=km
New Line.SBT_2366 phases=2 bus1=BT235831.2.4 bus2=BT235821.2.4 linecode=60_2 length=0.07444 units=km
New Line.SBT_2367 phases=2 bus1=BT235831.1.4 bus2=BT235841.1.4 linecode=60_2 length=0.11871 units=km
New Line.SBT_2364 phases=2 bus1=BT235861.1.4 bus2=BT235871.1.4 linecode=60_2 length=0.05166 units=km
New Line.SBT_2377 phases=2 bus1=BT235841.1.4 bus2=BT235851.1.4 linecode=60_2 length=0.09183 units=km
New Line.SBT_2376 phases=3 bus1=BT235911.1.2.4 bus2=BT235921.1.2.4 linecode=44_3 length=0.05787 units=km
New Line.SBT_26305 phases=2 bus1=BT235811.2.4 bus2=BT584391.2.4 linecode=60_2 length=0.17814 units=km
New Line.SBT_2378 phases=2 bus1=ET1_1250.1.4 bus2=BT135031.1.4 linecode=60_2 length=0.13223 units=km
New Line.SBT_2342 phases=3 bus1=BT134881.1.2.4 bus2=BT134901.1.2.4 linecode=44_3 length=0.08273 units=km
New Line.SBT_2382 phases=2 bus1=BT135031.1.4 bus2=BT135041.1.4 linecode=60_2 length=0.13274 units=km
New Line.SBT_2383 phases=2 bus1=BT135051.1.4 bus2=BT135061.1.4 linecode=60_2 length=0.09925 units=km
New Line.SBT_2037 phases=3 bus1=BT134871.1.2.4 bus2=BT134881.1.2.4 linecode=44_3 length=0.11102 units=km
New Line.SBT_19878 phases=3 bus1=ET1_1250.1.2.4 bus2=BT134871.1.2.4 linecode=44_3 length=0.10933 units=km
New Line.SBT_19895 phases=2 bus1=BT135061.1.4 bus2=BT135071.1.4 linecode=60_2 length=0.08603 units=km
New Line.SBT_19882 phases=2 bus1=BT135041.1.4 bus2=BT135051.1.4 linecode=60_2 length=0.12051 units=km
New Line.SBT_10294 phases=2 bus1=BT134901.1.4 bus2=BT134921.1.4 linecode=60_2 length=0.10522 units=km
New Line.SBT_12396 phases=2 bus1=BT201311.1.4 bus2=BT313301.1.4 linecode=62_2 length=0.11853 units=km
New Line.SBT_13851 phases=3 bus1=BT269791.1.2.4 bus2=BT604531.1.2.4 linecode=44_3 length=0.05708 units=km
New Line.SBT_16456 phases=2 bus1=BT302071.1.4 bus2=BT269771.1.4 linecode=62_2 length=0.11542 units=km
New Line.SBT_20397 phases=2 bus1=BT201311.1.4 bus2=BT201321.1.4 linecode=60_2 length=0.08016 units=km
New Line.SBT_20404 phases=3 bus1=BT269821.1.2.4 bus2=BT269831.1.2.4 linecode=44_3 length=0.03669 units=km
New Line.SBT_20505 phases=3 bus1=BT269791.1.2.4 bus2=BT269811.1.2.4 linecode=44_3 length=0.1161 units=km
New Line.SBT_20506 phases=3 bus1=BT269811.1.2.4 bus2=BT269821.1.2.4 linecode=44_3 length=0.04934 units=km
New Line.SBT_24895 phases=2 bus1=BT313301.1.4 bus2=BT313311.1.4 linecode=62_2 length=0.15832 units=km
New Line.SBT_3320 phases=3 bus1=BT269831.1.2.4 bus2=BT302071.1.2.4 linecode=44_3 length=0.08043 units=km
New Line.SBT_3502 phases=3 bus1=ET1_1299.1.2.4 bus2=BT269791.1.2.4 linecode=44_3 length=0.08417 units=km
New Line.SBT_3503 phases=3 bus1=BT604531.1.2.4 bus2=BT269801.1.2.4 linecode=44_3 length=0.06727 units=km
New Line.SBT_3538 phases=2 bus1=ET1_1299.1.4 bus2=BT201311.1.4 linecode=60_2 length=0.02402 units=km
New Line.SBT_2455 phases=3 bus1=BT254851.1.2.4 bus2=BT254861.1.2.4 linecode=44_3 length=0.08149 units=km
New Line.SBT_2456 phases=2 bus1=BT200241.1.4 bus2=BT200251.1.4 linecode=60_2 length=0.12 units=km
New Line.SBT_2458 phases=2 bus1=BT200261.1.4 bus2=BT200271.1.4 linecode=60_2 length=0.08102 units=km
New Line.SBT_2457 phases=2 bus1=BT200251.1.4 bus2=BT200261.1.4 linecode=60_2 length=0.06113 units=km
New Line.SBT_2454 phases=3 bus1=ET1_1317.1.2.4 bus2=BT254851.1.2.4 linecode=59_3 length=0.10655 units=km
New Line.SBT_19923 phases=3 bus1=BT254821.1.2.4 bus2=BT200241.1.2.4 linecode=44_3 length=0.14401 units=km
New Line.SBT_19924 phases=3 bus1=BT254851.1.2.4 bus2=BT254841.1.2.4 linecode=59_3 length=0.13014 units=km
New Line.SBT_19925 phases=2 bus1=BT254871.2.4 bus2=BT254881.2.4 linecode=60_2 length=0.1203 units=km
New Line.SBT_19927 phases=2 bus1=BT200271.1.4 bus2=BT200281.1.4 linecode=60_2 length=0.11607 units=km
New Line.SBT_1893 phases=3 bus1=ET1_1317.1.2.4 bus2=BT254821.1.2.4 linecode=44_3 length=0.07981 units=km
New Line.SBT_1894 phases=2 bus1=BT254821.1.4 bus2=BT254831.1.4 linecode=60_2 length=0.11792 units=km
New Line.SBT_16331 phases=2 bus1=BT254861.2.4 bus2=BT254871.2.4 linecode=60_2 length=0.13971 units=km
New Line.SBT_16286 phases=2 bus1=BT148181.1.4 bus2=BT292711.1.4 linecode=60_2 length=0.0681 units=km
New Line.SBT_19690 phases=4 bus1=BT148131.1.2.3.4 bus2=BT108811.1.2.3.4 linecode=53_4 length=0.03936 units=km
New Line.SBT_2011 phases=4 bus1=BT148181.1.2.3.4 bus2=BT148171.1.2.3.4 linecode=53_4 length=0.04588 units=km
New Line.SBT_2024 phases=4 bus1=BT345921.1.2.3.4 bus2=BT148141.1.2.3.4 linecode=97_4 length=0.03812 units=km
New Line.SBT_2022 phases=4 bus1=BT148161.1.2.3.4 bus2=BT345921.1.2.3.4 linecode=53_4 length=0.02905 units=km
New Line.SBT_2023 phases=4 bus1=BT345921.1.2.3.4 bus2=BT148131.1.2.3.4 linecode=53_4 length=0.0124 units=km
New Line.SBT_2044 phases=4 bus1=BT345921.1.2.3.4 bus2=BT110352.1.2.3.4 linecode=97_4 length=0.01302 units=km
New Line.SBT_2208 phases=4 bus1=BT108811.1.2.3.4 bus2=BT108801.1.2.3.4 linecode=53_4 length=0.03716 units=km
New Line.SBT_2224 phases=4 bus1=BT108801.1.2.3.4 bus2=BT108731.1.2.3.4 linecode=53_4 length=0.03536 units=km
New Line.SBT_32286 phases=4 bus1=BT148141.1.2.3.4 bus2=BT148151.1.2.3.4 linecode=74_4 length=0.03055 units=km
New Line.SBT_30903 phases=4 bus1=ET1_14.1.2.3.4 bus2=BT148181.1.2.3.4 linecode=73_4 length=0.04441 units=km
New Line.SBT_30906 phases=4 bus1=ET1_14.1.2.3.4 bus2=BT148202.1.2.3.4 linecode=73_4 length=0.0386 units=km
New Line.SBT_28867 phases=4 bus1=BT148171.1.2.3.4 bus2=BT148161.1.2.3.4 linecode=53_4 length=0.04386 units=km
New Line.SBT_29965 phases=2 bus1=BT292711.1.4 bus2=BT292701.1.4 linecode=60_2 length=0.10689 units=km
New Line.SBT_2666 phases=2 bus1=BT29771.1.4 bus2=BT519361.1.4 linecode=62_2 length=0.06061 units=km
New Line.SBT_25587 phases=4 bus1=BT29771.1.2.3.4 bus2=BT532941.1.2.3.4 linecode=73_4 length=0.04374 units=km
New Line.SBT_27452 phases=3 bus1=BT26081.1.2.4 bus2=BT610801.1.2.4 linecode=44_3 length=0.11166 units=km
New Line.SBT_4022 phases=3 bus1=BT26071.1.2.4 bus2=BT696341.1.2.4 linecode=44_3 length=0.02657 units=km
New Line.SBT_19592 phases=2 bus1=BT29141.1.4 bus2=BT11181.1.4 linecode=60_2 length=0.06306 units=km
New Line.SBT_19610 phases=4 bus1=ET1_1452.1.2.3.4 bus2=BT11201.1.2.3.4 linecode=97_4 length=0.03936 units=km
New Line.SBT_19611 phases=4 bus1=BT29761.1.2.3.4 bus2=BT29771.1.2.3.4 linecode=97_4 length=0.11947 units=km
New Line.SBT_19618 phases=3 bus1=BT610801.1.2.4 bus2=BT29741.1.2.4 linecode=44_3 length=0.04851 units=km
New Line.SBT_1906 phases=4 bus1=ET1_1452.1.2.3.4 bus2=BT29761.1.2.3.4 linecode=97_4 length=0.09348 units=km
New Line.SBT_1907 phases=4 bus1=BT11201.1.2.3.4 bus2=BT26071.1.2.3.4 linecode=97_4 length=0.07453 units=km
New Line.SBT_1908 phases=2 bus1=BT11201.1.4 bus2=BT295371.1.4 linecode=60_2 length=0.03847 units=km
New Line.SBT_1909 phases=3 bus1=BT696341.1.2.4 bus2=BT26081.1.2.4 linecode=44_3 length=0.07212 units=km
New Line.SBT_1924 phases=2 bus1=BT11181.1.4 bus2=BT11191.1.4 linecode=60_2 length=0.10735 units=km
New Line.SBT_1925 phases=3 bus1=BT29741.1.2.4 bus2=BT29751.1.2.4 linecode=44_3 length=0.04036 units=km
New Line.SBT_2472 phases=2 bus1=BT295371.1.4 bus2=BT29141.1.4 linecode=60_2 length=0.08627 units=km
New Line.SBT_18349 phases=2 bus1=BT78581.1.4 bus2=BT357381.1.4 linecode=60_2 length=0.06859 units=km
New Line.SBT_19735 phases=3 bus1=BT78581.1.2.4 bus2=BT78651.1.2.4 linecode=44_3 length=0.14202 units=km
New Line.SBT_19742 phases=3 bus1=BT78651.1.2.4 bus2=BT78661.1.2.4 linecode=44_3 length=0.12337 units=km
New Line.SBT_19743 phases=3 bus1=BT78661.1.2.4 bus2=BT78672.1.2.4 linecode=44_3 length=0.10102 units=km
New Line.SBT_19826 phases=2 bus1=BT78581.1.4 bus2=BT78571.1.4 linecode=62_2 length=0.07247 units=km
New Line.SBT_34238 phases=4 bus1=BT798551.1.2.3.4 bus2=BT78581.1.2.3.4 linecode=73_4 length=0.0458 units=km
New Line.SBT_34239 phases=4 bus1=BT798551.1.2.3.4 bus2=BT78592.1.2.3.4 linecode=73_4 length=0.04831 units=km
New Line.SBT_34240 phases=4 bus1=BT78592.1.2.3.4 bus2=BT78601.1.2.3.4 linecode=73_4 length=0.10057 units=km
New Line.SBT_34241 phases=2 bus1=ET1_1494.1.4 bus2=BT78612.1.4 linecode=62_2 length=0.02818 units=km
New Line.SBT_34242 phases=3 bus1=BT78632.1.2.4 bus2=BT78622.1.2.4 linecode=44_3 length=0.05657 units=km
New Line.SBT_34243 phases=3 bus1=BT798531.1.2.4 bus2=BT78632.1.2.4 linecode=59_3 length=0.04374 units=km
New Line.SBT_34248 phases=3 bus1=BT78601.1.2.4 bus2=BT338941.1.2.4 linecode=44_3 length=0.10448 units=km
New Line.SBT_34249 phases=3 bus1=BT338941.1.2.4 bus2=BT338951.1.2.4 linecode=44_3 length=0.10576 units=km
New Line.SBT_34250 phases=2 bus1=BT338951.1.4 bus2=BT338961.1.4 linecode=60_2 length=0.05404 units=km
New Line.SBT_34253 phases=2 bus1=BT78632.1.4 bus2=BT620032.1.4 linecode=60_2 length=0.08406 units=km
New Line.SBT_34254 phases=4 bus1=BT798531.1.2.3.4 bus2=BT798521.1.2.3.4 linecode=73_4 length=0.0771 units=km
New Line.SBT_34255 phases=4 bus1=ET1_1494.1.2.3.4 bus2=BT798531.1.2.3.4 linecode=73_4 length=0.07704 units=km
New Line.SBT_34257 phases=4 bus1=ET1_1494.1.2.3.4 bus2=BT798551.1.2.3.4 linecode=73_4 length=0.05744 units=km
New Line.SBT_34258 phases=2 bus1=BT78571.1.4 bus2=BT798561.1.4 linecode=62_2 length=0.06383 units=km
New Line.SBT_34245 phases=4 bus1=BT798621.1.2.3.4 bus2=BT151421.1.2.3.4 linecode=73_4 length=0.01594 units=km
New Line.SBT_34246 phases=2 bus1=BT798621.1.4 bus2=BT151432.1.4 linecode=62_2 length=0.03752 units=km
New Line.SBT_34247 phases=2 bus1=BT798631.3.4 bus2=BT193382.3.4 linecode=62_2 length=0.04856 units=km
New Line.SBT_34261 phases=4 bus1=BT798601.1.2.3.4 bus2=BT798591.1.2.3.4 linecode=73_4 length=0.08373 units=km
New Line.SBT_34263 phases=4 bus1=ET1_1495.1.2.3.4 bus2=BT798601.1.2.3.4 linecode=73_4 length=0.08086 units=km
New Line.SBT_34265 phases=4 bus1=ET1_1495.1.2.3.4 bus2=BT798621.1.2.3.4 linecode=73_4 length=0.0973 units=km
New Line.SBT_34266 phases=2 bus1=BT798641.3.4 bus2=BT798631.3.4 linecode=62_2 length=0.04414 units=km
New Line.SBT_34267 phases=4 bus1=BT798621.1.2.3.4 bus2=BT798641.1.2.3.4 linecode=73_4 length=0.06694 units=km
New Line.SBT_34237 phases=4 bus1=BT151421.1.2.3.4 bus2=BT77781.1.2.3.4 linecode=73_4 length=0.05385 units=km
New Line.SBT_34426 phases=3 bus1=BT77791.1.2.4 bus2=BT77801.1.2.4 linecode=44_3 length=0.16212 units=km
New Line.SBT_34428 phases=2 bus1=BT77801.2.4 bus2=BT328671.2.4 linecode=60_2 length=0.05644 units=km
New Line.SBT_34430 phases=2 bus1=BT604551.2.4 bus2=BT328683.2.4 linecode=60_2 length=0.045 units=km
New Line.SBT_25858 phases=2 bus1=BT77791.1.4 bus2=BT605221.1.4 linecode=62_2 length=0.06185 units=km
New Line.SBT_34433 phases=2 bus1=BT328671.2.4 bus2=BT604551.2.4 linecode=60_2 length=0.04535 units=km
New Line.SBT_2155 phases=3 bus1=BT77781.1.2.4 bus2=BT77791.1.2.4 linecode=44_3 length=0.12692 units=km
New Line.SBT_36152 phases=3 bus1=ET1_1516.1.2.4 bus2=BT254991.1.2.4 linecode=59_3 length=0.1007 units=km
New Line.SBT_2929 phases=3 bus1=ET1_1516.1.2.4 bus2=BT255011.1.2.4 linecode=59_3 length=0.05155 units=km
New Line.SBT_33812 phases=3 bus1=BT255011.1.2.4 bus2=BT795011.1.2.4 linecode=59_3 length=0.08804 units=km
New Line.SBT_2211 phases=4 bus1=ET1_1549.1.2.3.4 bus2=BT342921.1.2.3.4 linecode=75_4 length=0.02247 units=km
New Line.SBT_2212 phases=4 bus1=BT342931.1.2.3.4 bus2=BT342941.1.2.3.4 linecode=75_4 length=0.08157 units=km
New Line.SBT_2213 phases=4 bus1=BT342941.1.2.3.4 bus2=BT311451.1.2.3.4 linecode=73_4 length=0.04252 units=km
New Line.SBT_19783 phases=4 bus1=BT342921.1.2.3.4 bus2=BT342931.1.2.3.4 linecode=75_4 length=0.05749 units=km
New Line.SBT_19784 phases=4 bus1=BT311451.1.2.3.4 bus2=BT311441.1.2.3.4 linecode=73_4 length=0.08809 units=km
New Line.SBT_19881 phases=4 bus1=ET1_1557.1.2.3.4 bus2=BT29851.1.2.3.4 linecode=75_4 length=0.05463 units=km
New Line.SBT_2062 phases=4 bus1=ET1_1557.1.2.3.4 bus2=BT29871.1.2.3.4 linecode=97_4 length=0.05869 units=km
New Line.SBT_16530 phases=4 bus1=BT29861.1.2.3.4 bus2=BT235951.1.2.3.4 linecode=75_4 length=0.02746 units=km
New Line.SBT_28741 phases=4 bus1=BT29851.1.2.3.4 bus2=BT29861.1.2.3.4 linecode=75_4 length=0.0528 units=km
New Line.SBT_3345 phases=4 bus1=BT110361.1.2.3.4 bus2=BT110351.1.2.3.4 linecode=73_4 length=0.04188 units=km
New Line.SBT_3294 phases=4 bus1=ET1_1576.1.2.3.4 bus2=BT110371.1.2.3.4 linecode=73_4 length=0.03585 units=km
New Line.SBT_3295 phases=4 bus1=BT110371.1.2.3.4 bus2=BT110381.1.2.3.4 linecode=73_4 length=0.0264 units=km
New Line.SBT_3107 phases=4 bus1=BT110421.1.2.3.4 bus2=BT110451.1.2.3.4 linecode=73_4 length=0.05301 units=km
New Line.SBT_3108 phases=4 bus1=BT110451.1.2.3.4 bus2=BT110462.1.2.3.4 linecode=73_4 length=0.05315 units=km
New Line.SBT_20417 phases=4 bus1=BT110411.1.2.3.4 bus2=BT110421.1.2.3.4 linecode=73_4 length=0.052 units=km
New Line.SBT_20418 phases=4 bus1=BT583281.1.2.3.4 bus2=BT110391.1.2.3.4 linecode=73_4 length=0.02683 units=km
New Line.SBT_20389 phases=4 bus1=ET1_1576.1.2.3.4 bus2=BT110411.1.2.3.4 linecode=73_4 length=0.05057 units=km
New Line.SBT_20390 phases=4 bus1=BT110371.1.2.3.4 bus2=BT110361.1.2.3.4 linecode=73_4 length=0.03585 units=km
...
